LTspice 24.1.6 for Windows
Circuit: C:\users\valentino\Documents\Facultad\3ro\gatica\electronicaAplicada\I\trabajosPracticos\tp3\simulaciones\Draft1.net
Start Time: Mon Aug 18 20:35:01 2025
solver = Normal
Maximum thread count: 2
tnom = 27
temp = 27
method = trap
Direct Newton iteration for .op point succeeded.
Total elapsed time: 0.165 seconds.

Files loaded:
C:\users\valentino\Documents\Facultad\3ro\gatica\electronicaAplicada\I\trabajosPracticos\tp3\simulaciones\Draft1.net
C:\users\valentino\AppData\Local\LTspice\lib\cmp\standard.bjt

