LTspice 24.1.7 for Windows
Circuit: Z:\home\marcosgatica\facultadUTN\electronicaAplicada\I\trabajosPracticos\tp3\simulaciones\Sim_Ideal.net
Start Time: Wed Jul  2 10:21:13 2025
solver = Normal
Maximum thread count: 12
tnom = 27
temp = 27
method = trap
Direct Newton iteration for .op point succeeded.
Total elapsed time: 0.217 seconds.

Files loaded:
Z:\home\marcosgatica\facultadUTN\electronicaAplicada\I\trabajosPracticos\tp3\simulaciones\Sim_Ideal.net
C:\users\marcosgatica\AppData\Local\LTspice\lib\cmp\standard.bjt

